%chk=CuL3-BH3_p0.chk
%mem=50GB
%nprocs=24
#p opt=tight freq=noraman pbe1pbe/def2TZVP gfinput pop=nboread formcheck int=ultrafine

CuL3-BH3_p0

0 2
 Cu                 0.00000000    0.00000000   -0.24760806
 P                 -2.09299865   -0.01254602    0.49239090
 H                 -2.14602363   -0.64927118    1.68162150
 H                 -2.88085656   -0.65367626   -0.39684018
 H                 -2.52488476    1.25768013    0.64239063
 P                  1.05736450   -1.80631699    0.49239090
 H                  2.00652853   -2.16805684   -0.39684018
 H                  0.17325944   -2.81545441    0.64239063
 H                  1.63529715   -1.53387539    1.68162150
 P                  1.03563415    1.81886301    0.49239090
 H                  2.35162532    1.55777428    0.64239063
 H                  0.51072648    2.18314657    1.68162150
 H                  0.87432803    2.82173310   -0.39684018
 B                  0.00000000    0.00000000   -2.18760806
 H                 -0.87665844    0.49915657   -2.54427476
 H                  0.00604695   -1.00878677   -2.54427476
 H                  0.87061149    0.50963020   -2.54427476

 $nbo archive filename=CuL3-BH3_p0 BNDIDX SKIPBO $end


